/*--------------------------------*- C++ -*----------------------------------*\
  =========                 |
  \\      /  F ield         | OpenFOAM: The Open Source CFD Toolbox
   \\    /   O peration     | Website:  https://openfoam.org
    \\  /    A nd           | Version:  dev
     \\/     M anipulation  |
 *---------------------------------------------------------------------------*
   File created by CFD support s.r.o.  on   Sat Jun  5 20:18:52 2021
                     http://www.cdfsupport.com
 *---------------------------------------------------------------------------*
   TCAE 21.02 licensed to:
      TCAE Test License
      Trial Version
      TCAE 21.02
      Annual
\*---------------------------------------------------------------------------*/
FoamFile
{
    version 2.0;
    format ascii;
    class dictionary;
    location "TCFD/constant";
    object MRFProperties;
}

// * * * * * * * * * * * * * * * * * * * * * * * * * * * * * * * * * * * * * //


    MRF1
    {
      cellZone referenceFrame2;

      solidBodyMotionFunction  rotatingMotion;
          nonRotatingPatches
          (
              interface_impeller_volute_outlet
              interface_impeller_volute_inlet
          );
          axis (0 0 1);
          origin (0 0 0);
          omega -185.354;

    }



// ************************************************************************* //
